xflr5 v6.38

 Calculated polar for: S3010-fl 5

 1 1 Reynolds number fixed          Mach number fixed         

 xtrf =   0.100 (top)        0.100 (bottom)
 Mach =   0.000     Re =     0.350 e 6     Ncrit =   9.000

  alpha     CL        CD       CDp       Cm    Top Xtr Bot Xtr   Cpmin    Chinge    XCp    
 ------- -------- --------- --------- -------- ------- ------- -------- --------- ---------
 -18.000  -0.4884   0.19976   0.19412   0.0016  0.1000  0.0220  -1.3629  -0.0024   0.2405
 -17.750  -0.4807   0.19741   0.19175  -0.0003  0.1000  0.0221  -1.3343  -0.0022   0.2367
 -17.500  -0.4730   0.19527   0.18960  -0.0022  0.1000  0.0222  -1.3076  -0.0021   0.2329
 -17.250  -0.4652   0.19283   0.18715  -0.0041  0.1000  0.0223  -1.3103  -0.0020   0.2290
 -17.000  -0.4574   0.18996   0.18426  -0.0058  0.1000  0.0224  -1.3135  -0.0019   0.2250
 -16.750  -0.4496   0.18691   0.18119  -0.0076  0.1000  0.0224  -1.3174  -0.0017   0.2210
 -16.500  -0.4418   0.18373   0.17799  -0.0093  0.1000  0.0224  -1.3213  -0.0016   0.2170
 -16.250  -0.4339   0.18053   0.17478  -0.0109  0.1000  0.0225  -1.3256  -0.0015   0.2128
 -16.000  -0.4262   0.17732   0.17155  -0.0126  0.1000  0.0225  -1.3304  -0.0014   0.2085
 -15.750  -0.4184   0.17408   0.16829  -0.0143  0.1000  0.0225  -1.3354  -0.0013   0.2041
 -15.500  -0.4108   0.17082   0.16501  -0.0159  0.1000  0.0225  -1.3408  -0.0012   0.1995
 -15.250  -0.4031   0.16755   0.16172  -0.0175  0.1000  0.0226  -1.3466  -0.0010   0.1948
 -15.000  -0.3956   0.16425   0.15841  -0.0191  0.1000  0.0226  -1.3528  -0.0009   0.1899
 -14.750  -0.3880   0.16095   0.15509  -0.0207  0.1000  0.0226  -1.3596  -0.0008   0.1849
 -14.500  -0.3806   0.15763   0.15176  -0.0223  0.1000  0.0226  -1.3669  -0.0007   0.1797
 -14.250  -0.3732   0.15430   0.14841  -0.0239  0.1000  0.0226  -1.3747  -0.0006   0.1743
 -14.000  -0.3660   0.15096   0.14506  -0.0255  0.1000  0.0227  -1.3831  -0.0005   0.1688
 -13.750  -0.3588   0.14762   0.14171  -0.0270  0.1000  0.0227  -1.3922  -0.0004   0.1631
 -13.500  -0.3517   0.14428   0.13836  -0.0286  0.1000  0.0227  -1.4020  -0.0003   0.1572
 -13.250  -0.3448   0.14096   0.13503  -0.0301  0.1000  0.0227  -1.4126  -0.0002   0.1512
 -13.000  -0.3380   0.13763   0.13169  -0.0316  0.1000  0.0227  -1.4241  -0.0001   0.1449
 -12.750  -0.3310   0.13423   0.12829  -0.0332  0.1000  0.0228  -1.4361  -0.0000   0.1382
 -12.500  -0.3240   0.13082   0.12487  -0.0348  0.1000  0.0228  -1.4491   0.0001   0.1312
 -12.250  -0.3334   0.12122   0.11532  -0.0368  0.1000  0.0246  -1.6609   0.0002   0.1280
 -12.000  -0.3240   0.11822   0.11230  -0.0374  0.1000  0.0252  -1.5978   0.0002   0.1232
 -11.750  -0.3136   0.11543   0.10944  -0.0378  0.1000  0.0259  -1.5280   0.0003   0.1179
 -11.500  -0.3046   0.11264   0.10664  -0.0386  0.1000  0.0266  -1.4798   0.0004   0.1118
 -11.250  -0.2965   0.10985   0.10384  -0.0396  0.1000  0.0274  -1.4440   0.0005   0.1051
 -11.000  -0.2892   0.10703   0.10102  -0.0407  0.1000  0.0283  -1.4184   0.0006   0.0979
 -10.750  -0.2824   0.10419   0.09817  -0.0419  0.1000  0.0293  -1.4014   0.0006   0.0904
 -10.500  -0.2760   0.10127   0.09526  -0.0432  0.1000  0.0303  -1.3919   0.0007   0.0822
 -10.250  -0.2699   0.09820   0.09219  -0.0447  0.1000  0.0312  -1.3949   0.0008   0.0732
 -10.000  -0.2643   0.09509   0.08909  -0.0463  0.1000  0.0321  -1.4030   0.0009   0.0638
  -9.750  -0.2590   0.09195   0.08596  -0.0479  0.1000  0.0331  -1.4156   0.0009   0.0540
  -9.500  -0.2541   0.08879   0.08281  -0.0497  0.1000  0.0342  -1.4335   0.0010   0.0437
  -9.250  -0.2492   0.08555   0.07959  -0.0516  0.1000  0.0354  -1.4576   0.0011   0.0321
  -9.000  -0.2446   0.08230   0.07635  -0.0538  0.1000  0.0367  -1.4892   0.0011   0.0194
  -8.750  -0.2394   0.07913   0.07321  -0.0564  0.1000  0.0382  -1.5271   0.0012   0.0039
  -8.500  -0.2305   0.07675   0.07084  -0.0590  0.1000  0.0398  -1.5393   0.0013  -0.0163
  -8.250  -0.2245   0.07427   0.06839  -0.0617  0.1000  0.0405  -1.5570   0.0014  -0.0352
  -8.000  -0.2148   0.07028   0.06440  -0.0670  0.1000  0.0408  -1.5984   0.0017  -0.0724
  -7.750  -0.2027   0.06428   0.05837  -0.0761  0.1000  0.0409  -1.6880   0.0020  -0.1362
  -7.500  -0.1909   0.05907   0.05302  -0.0823  0.1000  0.0410  -1.7592   0.0022  -0.1922
  -7.250  -0.1775   0.05457   0.04835  -0.0868  0.1000  0.0411  -1.7998   0.0024  -0.2506
  -7.000  -0.1819   0.04166   0.03516  -0.0956  0.1000  0.0451  -2.0565   0.0027  -0.2872
  -6.750  -0.1612   0.03925   0.03269  -0.0967  0.1000  0.0469  -1.9551   0.0028  -0.3621
  -6.500  -0.1389   0.03699   0.03031  -0.0979  0.1000  0.0490  -1.8599   0.0029  -0.4681
  -6.250  -0.1149   0.03459   0.02773  -0.0992  0.1000  0.0518  -1.7805   0.0030  -0.6285
  -6.000  -0.0892   0.03227   0.02517  -0.1004  0.1000  0.0556  -1.7111   0.0032  -0.8941
  -5.750  -0.0616   0.03069   0.02336  -0.1009  0.1000  0.0603  -1.6333   0.0033  -1.4160
  -5.500  -0.0327   0.02968   0.02198  -0.1015  0.1000  0.0659  -1.5545   0.0034  -2.9055
  -5.250   0.0003   0.01874   0.00964  -0.1021  0.1000  0.0253  -2.0935   0.0036  370.3684
  -5.000   0.0286   0.01869   0.00951  -0.1018  0.1000  0.0235  -1.9311   0.0037   3.8600
  -4.750   0.0565   0.01687   0.00744  -0.1016  0.1000  0.0219  -1.8832   0.0038   2.0771
  -4.500   0.0843   0.01554   0.00589  -0.1015  0.1000  0.0211  -1.8042   0.0039   1.4702
  -4.250   0.1125   0.01472   0.00478  -0.1013  0.1000  0.0203  -1.6867   0.0040   1.1631
  -4.000   0.1410   0.01412   0.00401  -0.1013  0.1000  0.0200  -1.5655   0.0041   0.9774
  -3.750   0.1695   0.01373   0.00345  -0.1012  0.1000  0.0200  -1.4291   0.0042   0.8539
  -3.500   0.1980   0.01350   0.00305  -0.1011  0.1000  0.0206  -1.2933   0.0043   0.7659
  -3.250   0.2264   0.01335   0.00277  -0.1010  0.1000  0.0224  -1.1589   0.0044   0.7001
  -3.000   0.2547   0.01293   0.00256  -0.1011  0.1000  0.0864  -1.0242   0.0045   0.6502
  -2.750   0.2827   0.01288   0.00250  -0.1010  0.1000  0.1000  -0.8607   0.0046   0.6100
  -2.500   0.3104   0.01292   0.00248  -0.1009  0.1000  0.1000  -0.7047   0.0047   0.5770
  -2.250   0.3382   0.01296   0.00248  -0.1008  0.1000  0.1000  -0.5950   0.0048   0.5495
  -2.000   0.3658   0.01301   0.00249  -0.1007  0.1000  0.1000  -0.6109   0.0049   0.5262
  -1.750   0.3934   0.01306   0.00250  -0.1005  0.1000  0.1000  -0.6349   0.0050   0.5062
  -1.500   0.4210   0.01312   0.00253  -0.1004  0.1000  0.1000  -0.6590   0.0050   0.4888
  -1.250   0.4485   0.01318   0.00257  -0.1003  0.1000  0.1000  -0.6842   0.0051   0.4736
  -1.000   0.4760   0.01324   0.00261  -0.1001  0.1000  0.1000  -0.7146   0.0052   0.4601
  -0.750   0.5034   0.01331   0.00270  -0.1000  0.1000  0.1000  -0.7466   0.0053   0.4481
  -0.500   0.5308   0.01338   0.00274  -0.0998  0.1000  0.1000  -0.7789   0.0054   0.4373
  -0.250   0.5581   0.01346   0.00280  -0.0997  0.1000  0.1000  -0.8168   0.0055   0.4276
   0.000   0.5853   0.01355   0.00287  -0.0995  0.1000  0.1000  -0.8552   0.0055   0.4188
   0.250   0.6125   0.01364   0.00296  -0.0994  0.1000  0.1000  -0.8939   0.0056   0.4107
   0.500   0.6396   0.01374   0.00305  -0.0992  0.1000  0.1000  -0.9329   0.0057   0.4033
   0.750   0.6666   0.01384   0.00315  -0.0990  0.1000  0.1000  -0.9722   0.0058   0.3965
   1.000   0.6936   0.01394   0.00325  -0.0988  0.1000  0.1000  -1.0118   0.0059   0.3903
   1.250   0.7205   0.01405   0.00337  -0.0986  0.1000  0.1000  -1.0517   0.0059   0.3844
   1.500   0.7473   0.01417   0.00350  -0.0984  0.1000  0.1000  -1.0970   0.0060   0.3790
   1.750   0.7740   0.01429   0.00364  -0.0982  0.1000  0.1000  -1.1441   0.0061   0.3740
   2.000   0.8006   0.01441   0.00378  -0.0979  0.1000  0.1000  -1.1916   0.0062   0.3692
   2.250   0.8272   0.01454   0.00393  -0.0977  0.1000  0.1000  -1.2450   0.0062   0.3648
   2.500   0.8537   0.01467   0.00416  -0.0974  0.1000  0.1000  -1.3022   0.0063   0.3606
   2.750   0.8800   0.01481   0.00433  -0.0972  0.1000  0.1000  -1.3596   0.0064   0.3566
   3.000   0.9063   0.01496   0.00450  -0.0969  0.1000  0.1000  -1.4175   0.0064   0.3528
   3.250   0.9324   0.01512   0.00469  -0.0966  0.1000  0.1000  -1.4758   0.0065   0.3493
   3.500   0.9583   0.01528   0.00489  -0.0963  0.1000  0.1000  -1.5458   0.0066   0.3459
   3.750   0.9842   0.01545   0.00510  -0.0959  0.1000  0.1000  -1.6177   0.0066   0.3427
   4.000   1.0099   0.01562   0.00532  -0.0956  0.1000  0.1000  -1.7027   0.0067   0.3396
   4.250   1.0355   0.01581   0.00555  -0.0952  0.1000  0.1000  -1.7924   0.0068   0.3366
   4.500   1.0609   0.01600   0.00580  -0.0948  0.1000  0.1000  -1.8831   0.0068   0.3338
   4.750   1.0862   0.01619   0.00605  -0.0944  0.1000  0.1000  -1.9748   0.0069   0.3310
   5.000   1.1113   0.01640   0.00631  -0.0940  0.1000  0.1000  -2.0676   0.0069   0.3284
   5.250   1.1363   0.01661   0.00659  -0.0935  0.1000  0.1000  -2.1612   0.0070   0.3258
   5.500   1.1610   0.01683   0.00689  -0.0931  0.1000  0.1000  -2.2558   0.0070   0.3233
   5.750   1.1855   0.01706   0.00719  -0.0926  0.1000  0.1000  -2.3511   0.0071   0.3210
   6.000   1.2097   0.01732   0.00775  -0.0920  0.1000  0.1000  -2.4727   0.0071   0.3186
   6.250   1.2336   0.01759   0.00816  -0.0914  0.1000  0.1000  -2.6069   0.0072   0.3163
   6.500   1.2573   0.01786   0.00855  -0.0907  0.1000  0.1000  -2.7344   0.0072   0.3141
   6.750   1.2807   0.01815   0.00894  -0.0900  0.1000  0.1000  -2.8870   0.0073   0.3119
   7.000   1.3037   0.01845   0.00936  -0.0893  0.1000  0.1000  -3.1278   0.0073   0.3098
   7.250   1.3263   0.01876   0.00980  -0.0885  0.1000  0.1000  -3.3730   0.0073   0.3077
   7.500   1.3485   0.01910   0.01026  -0.0877  0.1000  0.1000  -3.6220   0.0074   0.3056
   7.750   1.3702   0.01946   0.01075  -0.0868  0.1000  0.1000  -3.8744   0.0074   0.3035
   8.000   1.3913   0.01985   0.01128  -0.0857  0.1000  0.1000  -4.1288   0.0074   0.3015
   8.250   1.4115   0.02028   0.01187  -0.0846  0.1000  0.1000  -4.3830   0.0074   0.2994
   8.500   1.4298   0.02078   0.01254  -0.0831  0.1000  0.1000  -4.6299   0.0074   0.2972
   8.750   1.4446   0.02141   0.01321  -0.0812  0.0937  0.1000  -4.8653   0.0074   0.2950
   9.000   1.4544   0.02240   0.01412  -0.0788  0.0814  0.1000  -5.0752   0.0074   0.2926
   9.250   1.4700   0.02302   0.01483  -0.0772  0.0765  0.1000  -5.3252   0.0074   0.2905
   9.500   1.4861   0.02360   0.01548  -0.0758  0.0689  0.1000  -5.5698   0.0074   0.2887
   9.750   1.4972   0.02455   0.01640  -0.0739  0.0619  0.1000  -5.7971   0.0075   0.2866
  10.000   1.5065   0.02561   0.01751  -0.0717  0.0555  0.1000  -6.0121   0.0076   0.2845
  10.250   1.5219   0.02626   0.01828  -0.0703  0.0528  0.1000  -6.2761   0.0077   0.2827
  10.500   1.5337   0.02717   0.01924  -0.0687  0.0484  0.1000  -6.5172   0.0078   0.2808
  10.750   1.5426   0.02834   0.02039  -0.0668  0.0427  0.1000  -6.7383   0.0079   0.2789
  11.000   1.5504   0.02960   0.02168  -0.0649  0.0358  0.1000  -6.9434   0.0081   0.2771
  11.250   1.5505   0.03154   0.02349  -0.0626  0.0227  0.1000  -7.0706   0.0083   0.2752
  11.500   1.5279   0.03570   0.02766  -0.0586  0.0099  0.1000  -6.8704   0.0086   0.2727
  11.750   1.5278   0.03791   0.03006  -0.0568  0.0095  0.1000  -6.9762   0.0088   0.2710
  12.000   1.5243   0.04049   0.03285  -0.0551  0.0092  0.1000  -7.0608   0.0091   0.2695
  12.250   1.5184   0.04352   0.03607  -0.0537  0.0090  0.1000  -7.1305   0.0094   0.2683
  12.500   1.5113   0.04695   0.03970  -0.0529  0.0089  0.1000  -7.1903   0.0096   0.2674
  12.750   1.5032   0.05075   0.04370  -0.0526  0.0088  0.1000  -7.2409   0.0099   0.2669
  13.000   1.4941   0.05491   0.04806  -0.0527  0.0087  0.1000  -7.2811   0.0102   0.2666
  13.250   1.4840   0.05942   0.05276  -0.0532  0.0087  0.1000  -7.3108   0.0104   0.2667
  13.500   1.4725   0.06433   0.05786  -0.0542  0.0086  0.1000  -7.3268   0.0107   0.2671
  13.750   1.4604   0.06941   0.06313  -0.0555  0.0086  0.1000  -7.3349   0.0109   0.2677
  14.000   1.4488   0.07470   0.06860  -0.0570  0.0086  0.1000  -7.3397   0.0111   0.2685
  14.250   1.4360   0.08046   0.07454  -0.0589  0.0086  0.1000  -7.3308   0.0114   0.2697
  14.500   1.4245   0.08607   0.08034  -0.0609  0.0086  0.1000  -7.3251   0.0116   0.2709
  14.750   1.4112   0.09228   0.08673  -0.0634  0.0086  0.1000  -7.2987   0.0118   0.2726
  15.000   1.3996   0.09818   0.09281  -0.0658  0.0086  0.1000  -7.2780   0.0121   0.2742
  15.250   1.3857   0.10474   0.09956  -0.0690  0.0086  0.1000  -7.2321   0.0123   0.2764
  15.500   1.3735   0.11095   0.10594  -0.0719  0.0086  0.1000  -7.1909   0.0125   0.2785
  15.750   1.3589   0.11789   0.11306  -0.0757  0.0087  0.1000  -7.1207   0.0128   0.2813
  16.000   1.3458   0.12453   0.11987  -0.0793  0.0087  0.1000  -7.0528   0.0130   0.2840
  16.250   1.3303   0.13182   0.12734  -0.0838  0.0088  0.1000  -6.9516   0.0133   0.2876
  16.500   1.3161   0.13859   0.13428  -0.0882  0.0088  0.1000  -6.8495   0.0135   0.2912
  16.750   1.2992   0.14664   0.14249  -0.0934  0.0089  0.1000  -6.7055   0.0138   0.2957
  17.000   1.2830   0.15495   0.15096  -0.0987  0.0089  0.1000  -6.5514   0.0140   0.3003
  17.250   1.2635   0.16488   0.16104  -0.1049  0.0090  0.1000  -6.3390   0.0143   0.3062
  17.500   1.2419   0.17616   0.17247  -0.1117  0.0090  0.1000  -6.0717   0.0146   0.3129
  17.750   1.2171   0.18935   0.18580  -0.1191  0.0091  0.1000  -5.7196   0.0149   0.3207
  18.000   1.1799   0.20850   0.20506  -0.1289  0.0093  0.1000  -5.0927   0.0153   0.3325
  18.250   1.1080   0.24705   0.24359  -0.1435  0.0101  0.1000  -3.4165   0.0160   0.3544
  18.500   1.1116   0.25248   0.24904  -0.1454  0.0104  0.1000  -3.4219   0.0161   0.3553
  18.750   1.1149   0.25827   0.25486  -0.1473  0.0108  0.1000  -3.4065   0.0163   0.3562


