xflr5 v6.38

 Calculated polar for: S3010-fl 0

 1 1 Reynolds number fixed          Mach number fixed         

 xtrf =   0.100 (top)        0.100 (bottom)
 Mach =   0.000     Re =     0.350 e 6     Ncrit =   9.000

  alpha     CL        CD       CDp       Cm    Top Xtr Bot Xtr   Cpmin    Chinge    XCp    
 ------- -------- --------- --------- -------- ------- ------- -------- --------- ---------
 -17.500  -0.6253   0.21863   0.21336   0.0459  0.1000  0.0211  -1.4833  -0.0061   0.3119
 -17.250  -0.6178   0.21587   0.21058   0.0437  0.1000  0.0214  -1.4615  -0.0060   0.3095
 -17.000  -0.6104   0.21281   0.20751   0.0416  0.1000  0.0215  -1.4358  -0.0058   0.3071
 -16.750  -0.6031   0.20973   0.20440   0.0396  0.1000  0.0216  -1.4084  -0.0057   0.3048
 -16.500  -0.5958   0.20685   0.20151   0.0375  0.1000  0.0218  -1.3850  -0.0055   0.3024
 -16.250  -0.5883   0.20388   0.19852   0.0356  0.1000  0.0219  -1.3888  -0.0054   0.3001
 -16.000  -0.5807   0.20077   0.19539   0.0337  0.1000  0.0219  -1.3928  -0.0052   0.2978
 -15.750  -0.5731   0.19756   0.19216   0.0318  0.1000  0.0220  -1.3973  -0.0051   0.2955
 -15.500  -0.5655   0.19429   0.18887   0.0300  0.1000  0.0220  -1.4018  -0.0050   0.2933
 -15.250  -0.5579   0.19108   0.18564   0.0283  0.1000  0.0220  -1.4068  -0.0048   0.2910
 -15.000  -0.5503   0.18795   0.18250   0.0265  0.1000  0.0221  -1.4120  -0.0047   0.2886
 -14.750  -0.5428   0.18489   0.17942   0.0247  0.1000  0.0221  -1.4174  -0.0046   0.2862
 -14.500  -0.5353   0.18188   0.17639   0.0230  0.1000  0.0221  -1.4234  -0.0044   0.2838
 -14.250  -0.5279   0.17877   0.17326   0.0213  0.1000  0.0221  -1.4297  -0.0043   0.2813
 -14.000  -0.5206   0.17541   0.16989   0.0196  0.1000  0.0222  -1.4368  -0.0042   0.2786
 -13.750  -0.5132   0.17200   0.16647   0.0178  0.1000  0.0222  -1.4443  -0.0040   0.2759
 -13.500  -0.5059   0.16856   0.16301   0.0161  0.1000  0.0222  -1.4524  -0.0039   0.2731
 -13.250  -0.4986   0.16507   0.15951   0.0144  0.1000  0.0222  -1.4611  -0.0038   0.2703
 -13.000  -0.4914   0.16154   0.15597   0.0126  0.1000  0.0222  -1.4703  -0.0036   0.2673
 -12.750  -0.4842   0.15799   0.15240   0.0109  0.1000  0.0223  -1.4803  -0.0035   0.2642
 -12.500  -0.4772   0.15441   0.14881   0.0092  0.1000  0.0223  -1.4912  -0.0034   0.2610
 -12.250  -0.4702   0.15081   0.14520   0.0074  0.1000  0.0223  -1.5029  -0.0033   0.2578
 -12.000  -0.4635   0.14719   0.14157   0.0057  0.1000  0.0223  -1.5156  -0.0031   0.2544
 -11.750  -0.4568   0.14355   0.13792   0.0040  0.1000  0.0223  -1.5294  -0.0030   0.2509
 -11.500  -0.4504   0.13991   0.13427   0.0022  0.1000  0.0224  -1.5443  -0.0029   0.2473
 -11.250  -0.4612   0.12982   0.12424  -0.0005  0.1000  0.0238  -1.7916  -0.0028   0.2412
 -11.000  -0.4550   0.12619   0.12060  -0.0015  0.1000  0.0244  -1.7595  -0.0027   0.2393
 -10.750  -0.4467   0.12316   0.11755  -0.0021  0.1000  0.0250  -1.7003  -0.0025   0.2379
 -10.500  -0.4380   0.12029   0.11462  -0.0027  0.1000  0.0257  -1.6380  -0.0024   0.2366
 -10.250  -0.4303   0.11733   0.11164  -0.0037  0.1000  0.0264  -1.5962  -0.0023   0.2344
 -10.000  -0.4232   0.11428   0.10858  -0.0048  0.1000  0.0272  -1.5655  -0.0022   0.2317
  -9.750  -0.4167   0.11115   0.10546  -0.0062  0.1000  0.0280  -1.5446  -0.0021   0.2285
  -9.500  -0.4108   0.10796   0.10226  -0.0076  0.1000  0.0289  -1.5322  -0.0020   0.2248
  -9.250  -0.4054   0.10469   0.09900  -0.0092  0.1000  0.0299  -1.5278  -0.0019   0.2208
  -9.000  -0.4008   0.10130   0.09561  -0.0109  0.1000  0.0308  -1.5352  -0.0018   0.2164
  -8.750  -0.3968   0.09786   0.09218  -0.0128  0.1000  0.0316  -1.5496  -0.0017   0.2117
  -8.500  -0.3932   0.09436   0.08870  -0.0147  0.1000  0.0325  -1.5690  -0.0016   0.2067
  -8.250  -0.3897   0.09076   0.08510  -0.0168  0.1000  0.0335  -1.5937  -0.0015   0.2010
  -8.000  -0.3870   0.08709   0.08145  -0.0192  0.1000  0.0345  -1.6254  -0.0014   0.1948
  -7.750  -0.3845   0.08333   0.07772  -0.0218  0.1000  0.0356  -1.6644  -0.0013   0.1877
  -7.500  -0.3824   0.07947   0.07389  -0.0250  0.1000  0.0368  -1.7122  -0.0012   0.1794
  -7.250  -0.3819   0.07576   0.07021  -0.0287  0.1000  0.0379  -1.7664  -0.0010   0.1698
  -7.000  -0.3711   0.07168   0.06611  -0.0355  0.1000  0.0393  -1.8080  -0.0007   0.1495
  -6.750  -0.3588   0.06713   0.06147  -0.0417  0.1000  0.0400  -1.8604  -0.0005   0.1289
  -6.500  -0.3490   0.06274   0.05694  -0.0457  0.1000  0.0403  -1.9073  -0.0003   0.1143
  -6.250  -0.3382   0.05862   0.05264  -0.0485  0.1000  0.0404  -1.9374  -0.0002   0.1020
  -6.000  -0.3254   0.05468   0.04851  -0.0505  0.1000  0.0405  -1.9518  -0.0001   0.0900
  -5.500  -0.3146   0.03914   0.03249  -0.0560  0.1000  0.0458  -2.1160   0.0001   0.0671
  -5.250  -0.2931   0.03699   0.03025  -0.0563  0.1000  0.0478  -2.0076   0.0002   0.0530
  -5.000  -0.2706   0.03481   0.02791  -0.0566  0.1000  0.0503  -1.9149   0.0003   0.0358
  -4.750  -0.2468   0.03266   0.02554  -0.0568  0.1000  0.0537  -1.8347   0.0004   0.0145
  -4.500  -0.2211   0.03092   0.02357  -0.0568  0.1000  0.0581  -1.7552   0.0005  -0.0124
  -4.250  -0.1889   0.03315   0.02569  -0.0557  0.1000  0.0634  -1.5848   0.0006  -0.0507
  -4.000  -0.1676   0.02145   0.01283  -0.0556  0.1000  0.0337  -1.9969   0.0006  -0.0889
  -3.750  -0.1383   0.01864   0.00940  -0.0544  0.1000  0.0239  -2.0958   0.0007  -0.1514
  -3.500  -0.1097   0.01869   0.00942  -0.0541  0.1000  0.0225  -1.9186   0.0008  -0.2520
  -3.250  -0.0837   0.01611   0.00653  -0.0534  0.1000  0.0211  -1.9224   0.0008  -0.3992
  -3.000  -0.0567   0.01502   0.00524  -0.0529  0.1000  0.0205  -1.8244   0.0009  -0.6981
  -2.750  -0.0293   0.01429   0.00423  -0.0525  0.1000  0.0198  -1.7014   0.0010  -1.5701
  -2.500  -0.0015   0.01374   0.00353  -0.0523  0.1000  0.0195  -1.5741   0.0011  -35.8263
  -2.250   0.0267   0.01339   0.00301  -0.0520  0.1000  0.0197  -1.4346   0.0012   2.2212
  -2.000   0.0550   0.01317   0.00263  -0.0518  0.1000  0.0204  -1.2971   0.0013   1.2013
  -1.500   0.1107   0.01252   0.00217  -0.0516  0.1000  0.1000  -1.0207   0.0014   0.7184
  -1.250   0.1389   0.01253   0.00212  -0.0515  0.1000  0.1000  -0.8521   0.0015   0.6220
  -1.000   0.1671   0.01255   0.00209  -0.0515  0.1000  0.1000  -0.7051   0.0016   0.5583
  -0.750   0.1951   0.01258   0.00208  -0.0514  0.1000  0.1000  -0.5949   0.0017   0.5131
  -0.500   0.2232   0.01260   0.00208  -0.0513  0.1000  0.1000  -0.5696   0.0018   0.4793
  -0.250   0.2512   0.01264   0.00208  -0.0513  0.1000  0.1000  -0.5941   0.0019   0.4530
   0.000   0.2792   0.01268   0.00210  -0.0512  0.1000  0.1000  -0.6219   0.0020   0.4321
   0.250   0.3071   0.01272   0.00212  -0.0512  0.1000  0.1000  -0.6532   0.0021   0.4149
   0.500   0.3350   0.01277   0.00216  -0.0511  0.1000  0.1000  -0.6846   0.0022   0.4006
   0.750   0.3629   0.01282   0.00222  -0.0511  0.1000  0.1000  -0.7180   0.0023   0.3885
   1.000   0.3907   0.01288   0.00226  -0.0510  0.1000  0.1000  -0.7556   0.0024   0.3781
   1.250   0.4185   0.01294   0.00231  -0.0509  0.1000  0.1000  -0.7934   0.0025   0.3691
   1.500   0.4463   0.01301   0.00237  -0.0509  0.1000  0.1000  -0.8316   0.0026   0.3612
   1.750   0.4740   0.01308   0.00244  -0.0508  0.1000  0.1000  -0.8701   0.0027   0.3543
   2.000   0.5016   0.01316   0.00251  -0.0508  0.1000  0.1000  -0.9089   0.0027   0.3480
   2.250   0.5293   0.01324   0.00260  -0.0507  0.1000  0.1000  -0.9480   0.0028   0.3424
   2.500   0.5568   0.01333   0.00270  -0.0507  0.1000  0.1000  -0.9876   0.0029   0.3374
   2.750   0.5843   0.01342   0.00281  -0.0506  0.1000  0.1000  -1.0338   0.0030   0.3328
   3.000   0.6118   0.01352   0.00292  -0.0505  0.1000  0.1000  -1.0805   0.0031   0.3286
   3.250   0.6392   0.01362   0.00305  -0.0504  0.1000  0.1000  -1.1276   0.0032   0.3247
   3.500   0.6665   0.01373   0.00318  -0.0504  0.1000  0.1000  -1.1810   0.0033   0.3212
   3.750   0.6937   0.01385   0.00332  -0.0503  0.1000  0.1000  -1.2375   0.0034   0.3179
   4.000   0.7210   0.01396   0.00353  -0.0502  0.1000  0.1000  -1.2950   0.0034   0.3148
   4.250   0.7481   0.01408   0.00369  -0.0501  0.1000  0.1000  -1.3527   0.0035   0.3119
   4.500   0.7751   0.01422   0.00385  -0.0500  0.1000  0.1000  -1.4109   0.0036   0.3092
   4.750   0.8020   0.01435   0.00403  -0.0499  0.1000  0.1000  -1.4798   0.0037   0.3067
   5.000   0.8289   0.01450   0.00422  -0.0498  0.1000  0.1000  -1.5517   0.0038   0.3043
   5.250   0.8556   0.01465   0.00442  -0.0497  0.1000  0.1000  -1.6341   0.0039   0.3020
   5.500   0.8823   0.01481   0.00463  -0.0495  0.1000  0.1000  -1.7240   0.0039   0.2998
   5.750   0.9088   0.01498   0.00485  -0.0494  0.1000  0.1000  -1.8150   0.0040   0.2978
   6.000   0.9353   0.01515   0.00509  -0.0492  0.1000  0.1000  -1.9073   0.0041   0.2958
   6.250   0.9616   0.01533   0.00533  -0.0491  0.1000  0.1000  -2.0007   0.0042   0.2939
   6.500   0.9878   0.01552   0.00559  -0.0489  0.1000  0.1000  -2.0951   0.0042   0.2921
   6.750   1.0138   0.01572   0.00586  -0.0487  0.1000  0.1000  -2.1906   0.0043   0.2903
   7.000   1.0397   0.01593   0.00614  -0.0485  0.1000  0.1000  -2.2871   0.0044   0.2886
   7.250   1.0655   0.01614   0.00644  -0.0483  0.1000  0.1000  -2.4009   0.0045   0.2870
   7.500   1.0909   0.01640   0.00705  -0.0480  0.1000  0.1000  -2.5398   0.0045   0.2853
   7.750   1.1162   0.01665   0.00742  -0.0477  0.1000  0.1000  -2.6712   0.0046   0.2838
   8.000   1.1413   0.01692   0.00780  -0.0474  0.1000  0.1000  -2.8023   0.0047   0.2822
   8.250   1.1662   0.01719   0.00820  -0.0471  0.1000  0.1000  -3.0489   0.0047   0.2807
   8.500   1.1908   0.01748   0.00862  -0.0467  0.1000  0.1000  -3.3007   0.0048   0.2792
   8.750   1.2150   0.01780   0.00907  -0.0463  0.1000  0.1000  -3.5574   0.0049   0.2778
   9.000   1.2390   0.01813   0.00954  -0.0459  0.1000  0.1000  -3.8186   0.0049   0.2763
   9.250   1.2624   0.01851   0.01006  -0.0453  0.1000  0.1000  -4.0828   0.0050   0.2748
   9.500   1.2852   0.01894   0.01066  -0.0447  0.1000  0.1000  -4.3477   0.0050   0.2733
   9.750   1.3065   0.01950   0.01141  -0.0439  0.0999  0.1000  -4.6058   0.0051   0.2717
  10.000   1.3247   0.02027   0.01208  -0.0430  0.0876  0.1000  -4.8619   0.0051   0.2702
  10.250   1.3426   0.02102   0.01286  -0.0419  0.0783  0.1000  -5.1171   0.0051   0.2687
  10.500   1.3634   0.02146   0.01343  -0.0413  0.0719  0.1000  -5.3909   0.0052   0.2673
  10.750   1.3798   0.02224   0.01416  -0.0402  0.0640  0.1000  -5.6435   0.0052   0.2658
  11.000   1.3926   0.02323   0.01517  -0.0386  0.0564  0.1000  -5.8744   0.0053   0.2640
  11.250   1.4105   0.02372   0.01579  -0.0376  0.0538  0.1000  -6.1517   0.0053   0.2625
  11.500   1.4231   0.02440   0.01654  -0.0359  0.0496  0.1000  -6.3956   0.0053   0.2606
  11.750   1.4326   0.02537   0.01749  -0.0340  0.0444  0.1000  -6.6189   0.0053   0.2588
  12.000   1.4388   0.02663   0.01877  -0.0321  0.0372  0.1000  -6.8106   0.0055   0.2569
  12.250   1.4470   0.02780   0.01993  -0.0307  0.0290  0.1000  -7.0034   0.0056   0.2553
  12.500   1.4333   0.03082   0.02276  -0.0280  0.0142  0.1000  -6.9750   0.0059   0.2533
  12.750   1.4174   0.03446   0.02662  -0.0260  0.0101  0.1000  -6.8535   0.0063   0.2516
  13.000   1.4140   0.03713   0.02948  -0.0252  0.0098  0.1000  -6.9315   0.0066   0.2506
  13.250   1.4092   0.04008   0.03262  -0.0246  0.0095  0.1000  -6.9983   0.0068   0.2498
  13.500   1.4026   0.04347   0.03620  -0.0246  0.0093  0.1000  -7.0525   0.0070   0.2493
  13.750   1.3947   0.04726   0.04017  -0.0250  0.0092  0.1000  -7.0952   0.0073   0.2492
  14.000   1.3859   0.05134   0.04444  -0.0257  0.0091  0.1000  -7.1286   0.0075   0.2493
  14.250   1.3761   0.05568   0.04895  -0.0266  0.0091  0.1000  -7.1523   0.0077   0.2496
  14.500   1.3645   0.06043   0.05388  -0.0280  0.0090  0.1000  -7.1597   0.0079   0.2503
  14.750   1.3522   0.06522   0.05884  -0.0295  0.0090  0.1000  -7.1602   0.0081   0.2511
  15.000   1.3403   0.07034   0.06413  -0.0313  0.0090  0.1000  -7.1560   0.0083   0.2521
  15.250   1.3282   0.07581   0.06976  -0.0334  0.0090  0.1000  -7.1440   0.0085   0.2534
  15.500   1.3171   0.08128   0.07540  -0.0356  0.0090  0.1000  -7.1328   0.0087   0.2548
  15.750   1.3049   0.08714   0.08144  -0.0382  0.0090  0.1000  -7.1070   0.0089   0.2565
  16.000   1.2933   0.09298   0.08744  -0.0408  0.0090  0.1000  -7.0786   0.0091   0.2583
  16.250   1.2814   0.09897   0.09360  -0.0437  0.0090  0.1000  -7.0405   0.0093   0.2604
  16.500   1.2682   0.10535   0.10014  -0.0470  0.0090  0.1000  -6.9834   0.0095   0.2629
  16.750   1.2561   0.11149   0.10646  -0.0503  0.0090  0.1000  -6.9263   0.0097   0.2654
  17.000   1.2412   0.11846   0.11358  -0.0543  0.0091  0.1000  -6.8348   0.0099   0.2687
  17.250   1.2277   0.12485   0.12014  -0.0582  0.0091  0.1000  -6.7458   0.0102   0.2719
  17.500   1.2114   0.13197   0.12742  -0.0629  0.0092  0.1000  -6.6164   0.0104   0.2761
  17.750   1.1965   0.13924   0.13484  -0.0675  0.0092  0.1000  -6.4838   0.0106   0.2803
  18.000   1.1780   0.14807   0.14382  -0.0731  0.0093  0.1000  -6.2958   0.0108   0.2856
  18.250   1.1589   0.15772   0.15362  -0.0789  0.0093  0.1000  -6.0743   0.0111   0.2915
  18.500   1.1374   0.16880   0.16483  -0.0852  0.0094  0.1000  -5.7927   0.0114   0.2983
  18.750   1.1088   0.18316   0.17931  -0.0929  0.0095  0.1000  -5.3639   0.0117   0.3074
  19.000   1.0463   0.21255   0.20877  -0.1058  0.0099  0.1000  -4.1762   0.0121   0.3262


